<?xml version="1.0" encoding="UTF-8"?>

<!-- generated on Sun Apr  2 04:43:05 2017 by SUMO netconvert Version 0.19.0
<?xml version="1.0" encoding="UTF-8"?>

<configuration xmlns:xsi="http://www.w3.org/2001/XMLSchema-instance" xsi:noNamespaceSchemaLocation="http://sumo-sim.org/xsd/netconvertConfiguration.xsd">

    <input>
        <osm-files value="map.osm"/>
    </input>

    <output>
        <output-file value="berlin.net.xml"/>
    </output>

    <projection>
        <proj.utm value="true"/>
    </projection>

</configuration>
-->

<net version="0.13" xmlns:xsi="http://www.w3.org/2001/XMLSchema-instance" xsi:noNamespaceSchemaLocation="http://sumo-sim.org/xsd/net_file.xsd">

    <location netOffset="-700823.35,-5711651.62" convBoundary="0.00,0.00,1131.06,1067.34" origBoundary="-0.105096,51.520033,-0.088623,51.529759" projParameter="+proj=utm +zone=30 +ellps=WGS84 +datum=WGS84 +units=m +no_defs"/>

    <edge id=":108395_0" function="internal">
        <lane id=":108395_0_0" index="0" speed="8.94" length="5.11" shape="206.06,318.92 204.67,318.62 203.56,318.86 202.72,319.63 202.16,320.93"/>
    </edge>
    <edge id=":108395_1" function="internal">
        <lane id=":108395_1_0" index="0" speed="8.94" length="10.90" shape="206.06,318.92 202.05,317.27 199.30,315.73 197.81,314.30 197.58,312.97"/>
    </edge>
    <edge id=":108395_2" function="internal">
        <lane id=":108395_2_0" index="0" speed="8.94" length="6.32" shape="203.88,314.91 202.16,320.93"/>
        <lane id=":108395_2_1" index="1" speed="8.94" length="6.32" shape="200.73,313.94 198.98,320.08"/>
    </edge>
    <edge id=":108395_4" function="internal">
        <lane id=":108395_4_0" index="0" speed="8.94" length="2.41" shape="200.73,313.94 199.58,314.88 198.67,315.03"/>
    </edge>
    <edge id=":108395_8" function="internal">
        <lane id=":108395_8_0" index="0" speed="8.94" length="2.41" shape="198.67,315.03 198.00,314.39 197.58,312.97"/>
    </edge>
    <edge id=":108395_5" function="internal">
        <lane id=":108395_5_0" index="0" speed="8.94" length="6.56" shape="192.60,318.36 194.42,312.00"/>
        <lane id=":108395_5_1" index="1" speed="8.94" length="6.56" shape="195.79,319.22 197.58,312.97"/>
    </edge>
    <edge id=":108395_7" function="internal">
        <lane id=":108395_7_0" index="0" speed="8.94" length="2.41" shape="195.79,319.22 196.91,318.24 197.81,318.05"/>
    </edge>
    <edge id=":108395_9" function="internal">
        <lane id=":108395_9_0" index="0" speed="8.94" length="2.41" shape="197.81,318.05 198.50,318.67 198.98,320.08"/>
    </edge>
    <edge id=":108396_0" function="internal">
        <lane id=":108396_0_0" index="0" speed="8.94" length="6.23" shape="220.04,268.75 218.46,268.76 217.19,269.32 216.22,270.43 215.56,272.09"/>
    </edge>
    <edge id=":108396_1" function="internal">
        <lane id=":108396_1_0" index="0" speed="8.94" length="16.62" shape="220.04,268.75 216.09,268.12 211.84,267.38 207.61,266.60 203.68,265.83"/>
    </edge>
    <edge id=":108396_2" function="internal">
        <lane id=":108396_2_0" index="0" speed="8.94" length="6.91" shape="220.04,268.75 215.78,267.66 213.65,266.33"/>
    </edge>
    <edge id=":108396_3" function="internal">
        <lane id=":108396_3_0" index="0" speed="8.94" length="2.41" shape="220.04,268.75 218.94,267.75 218.66,266.87"/>
    </edge>
    <edge id=":108396_16" function="internal">
        <lane id=":108396_16_0" index="0" speed="8.94" length="6.68" shape="213.65,266.33 212.96,265.90 211.58,263.48 211.64,260.40"/>
    </edge>
    <edge id=":108396_17" function="internal">
        <lane id=":108396_17_0" index="0" speed="8.94" length="2.41" shape="218.66,266.87 219.19,266.12 220.54,265.49"/>
    </edge>
    <edge id=":108396_4" function="internal">
        <lane id=":108396_4_0" index="0" speed="8.94" length="5.09" shape="218.07,261.86 217.96,263.27 218.33,264.34 219.19,265.08 220.54,265.49"/>
    </edge>
    <edge id=":108396_5" function="internal">
        <lane id=":108396_5_0" index="0" speed="8.94" length="10.42" shape="214.86,261.13 214.17,264.15 213.68,266.21 213.15,268.26 212.37,271.25"/>
    </edge>
    <edge id=":108396_6" function="internal">
        <lane id=":108396_6_0" index="0" speed="8.94" length="3.63" shape="214.86,261.13 213.59,263.93 213.14,264.26"/>
    </edge>
    <edge id=":108396_7" function="internal">
        <lane id=":108396_7_0" index="0" speed="8.94" length="2.41" shape="214.86,261.13 213.78,262.15 212.88,262.37"/>
    </edge>
    <edge id=":108396_18" function="internal">
        <lane id=":108396_18_0" index="0" speed="8.94" length="10.01" shape="213.14,264.26 211.30,265.64 208.00,266.28 203.68,265.83"/>
    </edge>
    <edge id=":108396_19" function="internal">
        <lane id=":108396_19_0" index="0" speed="8.94" length="2.41" shape="212.88,262.37 212.17,261.79 211.64,260.40"/>
    </edge>
    <edge id=":108396_8" function="internal">
        <lane id=":108396_8_0" index="0" speed="8.94" length="5.70" shape="204.34,262.60 205.82,262.67 206.99,262.20 207.86,261.20 208.42,259.66"/>
    </edge>
    <edge id=":108396_9" function="internal">
        <lane id=":108396_9_0" index="0" speed="8.94" length="16.46" shape="204.34,262.60 208.24,263.37 212.42,264.14 216.61,264.86 220.54,265.49"/>
    </edge>
    <edge id=":108396_10" function="internal">
        <lane id=":108396_10_0" index="0" speed="8.94" length="6.79" shape="204.34,262.60 208.51,263.89 210.51,265.26"/>
    </edge>
    <edge id=":108396_11" function="internal">
        <lane id=":108396_11_0" index="0" speed="8.94" length="2.41" shape="204.34,262.60 205.39,263.66 205.62,264.55"/>
    </edge>
    <edge id=":108396_20" function="internal">
        <lane id=":108396_20_0" index="0" speed="8.94" length="6.69" shape="210.51,265.26 211.24,265.76 212.52,268.22 212.37,271.25"/>
    </edge>
    <edge id=":108396_21" function="internal">
        <lane id=":108396_21_0" index="0" speed="8.94" length="2.41" shape="205.62,264.55 205.06,265.27 203.68,265.83"/>
    </edge>
    <edge id=":108396_12" function="internal">
        <lane id=":108396_12_0" index="0" speed="8.94" length="5.07" shape="205.99,269.56 206.15,268.17 205.82,267.08 204.99,266.31 203.68,265.83"/>
    </edge>
    <edge id=":108396_13" function="internal">
        <lane id=":108396_13_0" index="0" speed="8.94" length="10.31" shape="209.18,270.40 209.96,267.45 210.47,265.42 210.96,263.38 211.64,260.40"/>
    </edge>
    <edge id=":108396_14" function="internal">
        <lane id=":108396_14_0" index="0" speed="8.94" length="3.78" shape="209.18,270.40 210.52,267.70 211.13,267.25"/>
    </edge>
    <edge id=":108396_15" function="internal">
        <lane id=":108396_15_0" index="0" speed="8.94" length="2.41" shape="209.18,270.40 210.29,269.42 211.19,269.23"/>
    </edge>
    <edge id=":108396_22" function="internal">
        <lane id=":108396_22_0" index="0" speed="8.94" length="9.91" shape="211.13,267.25 212.86,265.98 216.20,265.24 220.54,265.49"/>
    </edge>
    <edge id=":108396_23" function="internal">
        <lane id=":108396_23_0" index="0" speed="8.94" length="2.41" shape="211.19,269.23 211.89,269.84 212.37,271.25"/>
    </edge>
    <edge id=":108397_0" function="internal">
        <lane id=":108397_0_0" index="0" allow="delivery" speed="7.25" length="5.25" shape="277.90,283.02 276.55,282.72 275.42,282.97 274.50,283.76 273.80,285.09"/>
    </edge>
    <edge id=":108397_1" function="internal">
        <lane id=":108397_1_0" index="0" speed="8.94" length="9.69" shape="277.90,283.02 268.67,280.06"/>
    </edge>
    <edge id=":108397_2" function="internal">
        <lane id=":108397_2_0" index="0" speed="8.94" length="2.41" shape="277.90,283.02 277.04,281.80 276.96,280.88"/>
    </edge>
    <edge id=":108397_9" function="internal">
        <lane id=":108397_9_0" index="0" speed="8.94" length="2.41" shape="276.96,280.88 277.64,280.26 279.09,279.94"/>
    </edge>
    <edge id=":108397_3" function="internal">
        <lane id=":108397_3_0" index="0" speed="8.94" length="10.09" shape="269.49,276.87 272.38,277.62 274.36,278.19 276.31,278.87 279.09,279.94"/>
    </edge>
    <edge id=":108397_4" function="internal">
        <lane id=":108397_4_0" index="0" allow="delivery" speed="7.25" length="7.57" shape="269.49,276.87 272.27,278.03 273.92,279.79 274.37,281.89"/>
    </edge>
    <edge id=":108397_5" function="internal">
        <lane id=":108397_5_0" index="0" speed="8.94" length="2.41" shape="269.49,276.87 270.48,277.98 270.68,278.88"/>
    </edge>
    <edge id=":108397_10" function="internal">
        <lane id=":108397_10_0" index="0" speed="7.25" length="3.27" shape="274.37,281.89 274.43,282.14 273.80,285.09"/>
    </edge>
    <edge id=":108397_11" function="internal">
        <lane id=":108397_11_0" index="0" speed="8.94" length="2.41" shape="270.68,278.88 270.07,279.57 268.67,280.06"/>
    </edge>
    <edge id=":108397_6" function="internal">
        <lane id=":108397_6_0" index="0" speed="7.25" length="5.12" shape="270.70,283.95 271.00,282.55 270.76,281.44 269.98,280.61 268.67,280.06"/>
    </edge>
    <edge id=":108397_7" function="internal">
        <lane id=":108397_7_0" index="0" speed="7.25" length="10.64" shape="270.70,283.95 272.11,281.31 273.97,279.77 276.30,279.31 279.09,279.94"/>
    </edge>
    <edge id=":108397_8" function="internal">
        <lane id=":108397_8_0" index="0" allow="delivery" speed="5.56" length="4.82" shape="270.70,283.95 271.91,283.07 272.82,282.97 273.45,283.64 273.80,285.09"/>
    </edge>
    <edge id=":108409_0" function="internal">
        <lane id=":108409_0_0" index="0" speed="8.94" length="14.51" shape="541.10,174.90 542.17,171.88 544.54,169.59 547.00,166.92 548.34,162.75"/>
    </edge>
    <edge id=":108409_1" function="internal">
        <lane id=":108409_1_0" index="0" speed="8.94" length="3.82" shape="541.10,174.90 541.66,172.46 542.61,171.54"/>
    </edge>
    <edge id=":108409_2" function="internal">
        <lane id=":108409_2_0" index="0" speed="8.94" length="3.01" shape="541.10,174.90 542.72,174.19 543.81,174.30 543.88,174.43"/>
    </edge>
    <edge id=":108409_8" function="internal">
        <lane id=":108409_8_0" index="0" speed="8.94" length="7.78" shape="542.61,171.54 543.33,170.85 546.11,170.06 550.01,170.10"/>
    </edge>
    <edge id=":108409_9" function="internal">
        <lane id=":108409_9_0" index="0" speed="8.94" length="2.71" shape="543.88,174.43 544.37,175.24 544.40,177.01"/>
    </edge>
    <edge id=":108409_3" function="internal">
        <lane id=":108409_3_0" index="0" speed="8.94" length="8.42" shape="550.84,173.50 548.03,173.48 546.01,174.05 544.81,175.23 544.40,177.01"/>
    </edge>
    <edge id=":108409_4" function="internal">
        <lane id=":108409_4_0" index="0" speed="8.94" length="11.73" shape="550.84,173.50 549.48,172.71 548.61,170.65 548.23,167.33 548.34,162.75"/>
    </edge>
    <edge id=":108409_5" function="internal">
        <lane id=":108409_5_0" index="0" speed="8.94" length="5.11" shape="550.84,173.50 549.36,172.96 548.72,172.22 548.94,171.26 550.01,170.10"/>
    </edge>
    <edge id=":108409_6" function="internal">
        <lane id=":108409_6_0" index="0" speed="8.94" length="15.21" shape="538.34,161.98 539.73,165.16 542.13,167.57 545.56,169.22 550.01,170.10"/>
    </edge>
    <edge id=":108409_7" function="internal">
        <lane id=":108409_7_0" index="0" speed="8.94" length="16.31" shape="538.34,161.98 540.11,166.95 542.10,170.57 543.73,173.66 544.40,177.01"/>
    </edge>
    <edge id=":108411_0" function="internal">
        <lane id=":108411_0_0" index="0" speed="8.94" length="5.00" shape="735.79,241.70 735.57,243.02 735.83,244.12 736.55,245.02 737.74,245.71"/>
    </edge>
    <edge id=":108411_1" function="internal">
        <lane id=":108411_1_0" index="0" speed="8.94" length="6.07" shape="735.79,241.70 733.70,247.40"/>
    </edge>
    <edge id=":108411_2" function="internal">
        <lane id=":108411_2_0" index="0" speed="8.94" length="4.82" shape="735.79,241.70 734.63,242.63 733.72,242.77 733.06,242.13 732.65,240.70"/>
    </edge>
    <edge id=":108411_3" function="internal">
        <lane id=":108411_3_0" index="0" speed="8.94" length="5.79" shape="730.65,246.14 732.65,240.70"/>
    </edge>
    <edge id=":108411_4" function="internal">
        <lane id=":108411_4_0" index="0" speed="8.94" length="7.83" shape="730.65,246.14 731.53,245.04 733.01,244.61 735.08,244.83 737.74,245.71"/>
    </edge>
    <edge id=":108411_5" function="internal">
        <lane id=":108411_5_0" index="0" speed="8.94" length="4.82" shape="730.65,246.14 731.88,245.31 732.80,245.24 733.41,245.94 733.70,247.40"/>
    </edge>
    <edge id=":108412_0" function="internal">
        <lane id=":108412_0_0" index="0" speed="8.94" length="5.09" shape="686.00,373.58 684.65,373.16 683.52,373.29 682.61,373.98 681.93,375.21"/>
    </edge>
    <edge id=":108412_1" function="internal">
        <lane id=":108412_1_0" index="0" speed="8.94" length="7.86" shape="686.00,373.58 683.47,372.19 681.81,370.84 681.01,369.51 681.07,368.22"/>
    </edge>
    <edge id=":108412_2" function="internal">
        <lane id=":108412_2_0" index="0" speed="8.94" length="6.21" shape="684.15,369.41 681.93,375.21"/>
    </edge>
    <edge id=":108412_3" function="internal">
        <lane id=":108412_3_0" index="0" speed="8.94" length="2.41" shape="684.15,369.41 682.94,370.27 682.02,370.35"/>
    </edge>
    <edge id=":108412_6" function="internal">
        <lane id=":108412_6_0" index="0" speed="8.94" length="2.41" shape="682.02,370.35 681.40,369.67 681.07,368.22"/>
    </edge>
    <edge id=":108412_4" function="internal">
        <lane id=":108412_4_0" index="0" speed="8.94" length="6.23" shape="678.84,374.03 681.07,368.22"/>
    </edge>
    <edge id=":108412_5" function="internal">
        <lane id=":108412_5_0" index="0" speed="8.94" length="2.41" shape="678.84,374.03 680.06,373.17 680.97,373.08"/>
    </edge>
    <edge id=":108412_7" function="internal">
        <lane id=":108412_7_0" index="0" speed="8.94" length="2.41" shape="680.97,373.08 681.60,373.76 681.93,375.21"/>
    </edge>
    <edge id=":108413_0" function="internal">
        <lane id=":108413_0_0" index="0" speed="8.94" length="5.06" shape="806.60,430.81 805.29,430.33 804.16,430.40 803.21,431.01 802.43,432.17"/>
    </edge>
    <edge id=":108413_1" function="internal">
        <lane id=":108413_1_0" index="0" speed="8.94" length="6.28" shape="806.60,430.81 801.00,427.98"/>
    </edge>
    <edge id=":108413_2" function="internal">
        <lane id=":108413_2_0" index="0" speed="8.94" length="6.25" shape="805.16,426.54 802.43,432.17"/>
    </edge>
    <edge id=":108413_3" function="internal">
        <lane id=":108413_3_0" index="0" speed="8.94" length="5.01" shape="805.16,426.54 804.39,427.67 803.44,428.28 802.31,428.39 801.00,427.98"/>
    </edge>
    <edge id=":108417_0" function="internal">
        <lane id=":108417_0_0" index="0" speed="8.94" length="20.56" shape="465.71,370.05 459.40,367.98 454.12,367.51 449.86,368.63 446.64,371.34"/>
    </edge>
    <edge id=":108417_1" function="internal">
        <lane id=":108417_1_0" index="0" speed="8.94" length="23.78" shape="465.71,370.05 459.64,367.82 454.52,366.56 449.27,365.72 442.83,364.77"/>
        <lane id=":108417_1_1" index="1" speed="8.94" length="23.78" shape="466.51,366.82 460.37,364.57 455.10,363.29 449.71,362.45 443.20,361.49"/>
    </edge>
    <edge id=":108417_3" function="internal">
        <lane id=":108417_3_0" index="0" speed="8.94" length="25.55" shape="466.51,366.82 458.99,363.19 453.24,359.39 449.25,355.43 447.03,351.31"/>
    </edge>
    <edge id=":108417_4" function="internal">
        <lane id=":108417_4_0" index="0" speed="8.94" length="8.63" shape="466.51,366.82 460.94,363.58 459.73,361.76"/>
    </edge>
    <edge id=":108417_5" function="internal">
        <lane id=":108417_5_0" index="0" speed="8.94" length="2.43" shape="466.51,366.82 465.50,365.71 465.30,364.81"/>
    </edge>
    <edge id=":108417_27" function="internal">
        <lane id=":108417_27_0" index="0" speed="8.94" length="12.48" shape="459.73,361.76 458.47,359.86 459.10,355.67 462.82,351.01"/>
    </edge>
    <edge id=":108417_28" function="internal">
        <lane id=":108417_28_0" index="0" speed="8.94" length="2.43" shape="465.30,364.81 465.90,364.10 467.31,363.59"/>
    </edge>
    <edge id=":108417_6" function="internal">
        <lane id=":108417_6_0" index="0" speed="8.94" length="5.84" shape="467.16,355.99 466.11,357.29 465.92,358.46 466.58,359.48 468.11,360.36"/>
    </edge>
    <edge id=":108417_7" function="internal">
        <lane id=":108417_7_0" index="0" speed="8.94" length="25.67" shape="467.16,355.99 461.29,360.70 455.30,364.74 450.10,368.23 446.64,371.34"/>
    </edge>
    <edge id=":108417_8" function="internal">
        <lane id=":108417_8_0" index="0" speed="8.94" length="5.67" shape="464.99,353.50 460.53,357.00"/>
    </edge>
    <edge id=":108417_9" function="internal">
        <lane id=":108417_9_0" index="0" speed="8.94" length="5.75" shape="464.99,353.50 460.36,356.91"/>
    </edge>
    <edge id=":108417_10" function="internal">
        <lane id=":108417_10_0" index="0" speed="8.94" length="2.41" shape="464.99,353.50 463.52,353.69 462.66,353.34"/>
    </edge>
    <edge id=":108417_29" function="internal">
        <lane id=":108417_29_0" index="0" speed="8.94" length="18.36" shape="460.53,357.00 459.67,357.68 454.27,360.40 448.78,361.67 443.20,361.49"/>
    </edge>
    <edge id=":108417_30" function="internal">
        <lane id=":108417_30_0" index="0" speed="8.94" length="17.83" shape="460.36,356.91 458.88,358.00 453.84,359.14 449.89,356.90 447.03,351.31"/>
    </edge>
    <edge id=":108417_31" function="internal">
        <lane id=":108417_31_0" index="0" speed="8.94" length="2.41" shape="462.66,353.34 462.43,352.45 462.82,351.01"/>
    </edge>
    <edge id=":108417_11" function="internal">
        <lane id=":108417_11_0" index="0" speed="8.94" length="17.02" shape="449.88,349.41 451.93,353.46 454.78,355.08 458.41,354.26 462.82,351.01"/>
    </edge>
    <edge id=":108417_12" function="internal">
        <lane id=":108417_12_0" index="0" speed="8.94" length="21.55" shape="449.88,349.41 451.48,351.56 455.05,354.10 460.59,357.03 468.11,360.36"/>
    </edge>
    <edge id=":108417_13" function="internal">
        <lane id=":108417_13_0" index="0" speed="8.94" length="6.03" shape="449.88,349.41 451.13,355.31"/>
    </edge>
    <edge id=":108417_14" function="internal">
        <lane id=":108417_14_0" index="0" speed="8.94" length="6.08" shape="449.88,349.41 451.10,355.37"/>
    </edge>
    <edge id=":108417_15" function="internal">
        <lane id=":108417_15_0" index="0" speed="8.94" length="2.50" shape="449.88,349.41 449.88,350.96 449.40,351.79"/>
    </edge>
    <edge id=":108417_32" function="internal">
        <lane id=":108417_32_0" index="0" speed="8.94" length="17.05" shape="451.13,355.31 451.17,355.51 451.06,361.20 449.55,366.47 446.64,371.34"/>
    </edge>
    <edge id=":108417_33" function="internal">
        <lane id=":108417_33_0" index="0" speed="8.94" length="11.95" shape="451.10,355.37 450.40,359.37 447.76,361.41 443.20,361.49"/>
    </edge>
    <edge id=":108417_34" function="internal">
        <lane id=":108417_34_0" index="0" speed="8.94" length="2.50" shape="449.40,351.79 448.45,351.90 447.03,351.31"/>
    </edge>
    <edge id=":108417_16" function="internal">
        <lane id=":108417_16_0" index="0" speed="8.94" length="6.32" shape="443.94,354.93 445.81,354.97 446.95,354.38 447.35,353.16 447.03,351.31"/>
    </edge>
    <edge id=":108417_17" function="internal">
        <lane id=":108417_17_0" index="0" speed="8.94" length="19.94" shape="443.94,354.93 449.81,355.44 454.91,354.96 459.25,353.48 462.82,351.01"/>
    </edge>
    <edge id=":108417_18" function="internal">
        <lane id=":108417_18_0" index="0" speed="8.94" length="24.64" shape="443.94,354.93 450.58,355.91 456.26,356.80 461.82,358.12 468.11,360.36"/>
        <lane id=":108417_18_1" index="1" speed="8.94" length="24.64" shape="443.57,358.21 450.15,359.18 455.69,360.04 461.10,361.34 467.31,363.59"/>
    </edge>
    <edge id=":108417_20" function="internal">
        <lane id=":108417_20_0" index="0" speed="8.94" length="4.65" shape="443.57,358.21 447.98,359.68"/>
    </edge>
    <edge id=":108417_21" function="internal">
        <lane id=":108417_21_0" index="0" speed="8.94" length="2.41" shape="443.57,358.21 444.71,359.17 445.03,360.03"/>
    </edge>
    <edge id=":108417_35" function="internal">
        <lane id=":108417_35_0" index="0" speed="8.94" length="13.38" shape="447.98,359.68 448.17,359.74 450.22,362.44 449.70,366.31 446.64,371.34"/>
    </edge>
    <edge id=":108417_36" function="internal">
        <lane id=":108417_36_0" index="0" speed="8.94" length="2.41" shape="445.03,360.03 444.52,360.81 443.20,361.49"/>
    </edge>
    <edge id=":108417_22" function="internal">
        <lane id=":108417_22_0" index="0" speed="8.94" length="5.99" shape="444.33,368.95 445.26,367.38 445.31,366.16 444.50,365.29 442.83,364.77"/>
    </edge>
    <edge id=":108417_23" function="internal">
        <lane id=":108417_23_0" index="0" speed="8.94" length="18.59" shape="444.33,368.95 446.71,364.99 447.96,360.73 448.06,356.17 447.03,351.31"/>
    </edge>
    <edge id=":108417_24" function="internal">
        <lane id=":108417_24_0" index="0" speed="8.94" length="25.77" shape="444.33,368.95 448.00,364.96 453.35,359.78 458.82,354.69 462.82,351.01"/>
    </edge>
    <edge id=":108417_25" function="internal">
        <lane id=":108417_25_0" index="0" speed="8.94" length="4.93" shape="444.33,368.95 447.88,365.52"/>
    </edge>
    <edge id=":108417_26" function="internal">
        <lane id=":108417_26_0" index="0" speed="8.94" length="2.42" shape="444.33,368.95 445.81,368.69 446.68,368.99"/>
    </edge>
    <edge id=":108417_37" function="internal">
        <lane id=":108417_37_0" index="0" speed="8.94" length="20.69" shape="447.88,365.52 449.06,364.36 454.47,361.94 460.55,361.68 467.31,363.59"/>
    </edge>
    <edge id=":108417_38" function="internal">
        <lane id=":108417_38_0" index="0" speed="8.94" length="2.42" shape="446.68,368.99 446.96,369.88 446.64,371.34"/>
    </edge>
    <edge id=":108548_0" function="internal">
        <lane id=":108548_0_0" index="0" speed="8.94" length="4.82" shape="62.29,624.97 61.61,626.29 60.83,626.79 59.97,626.47 59.01,625.33"/>
    </edge>
    <edge id=":109360_0" function="internal">
        <lane id=":109360_0_0" index="0" speed="8.94" length="4.82" shape="558.51,780.68 557.37,781.64 556.47,781.80 555.79,781.17 555.35,779.75"/>
    </edge>
    <edge id=":109363_0" function="internal">
        <lane id=":109363_0_0" index="0" allow="pedestrian" speed="8.33" length="4.82" shape="746.95,693.75 745.78,694.67 744.87,694.81 744.21,694.16 743.81,692.73"/>
    </edge>
    <edge id=":109364_0" function="internal">
        <lane id=":109364_0_0" index="0" speed="8.94" length="5.42" shape="612.25,550.36 610.37,555.44"/>
    </edge>
    <edge id=":109364_1" function="internal">
        <lane id=":109364_1_0" index="0" speed="8.94" length="8.16" shape="612.25,550.36 611.25,551.60 609.72,552.01 607.66,551.60 605.07,550.36"/>
    </edge>
    <edge id=":109364_2" function="internal">
        <lane id=":109364_2_0" index="0" speed="8.94" length="4.82" shape="612.25,550.36 610.99,551.15 610.07,551.19 609.49,550.48 609.24,549.01"/>
    </edge>
    <edge id=":109364_3" function="internal">
        <lane id=":109364_3_0" index="0" speed="8.94" length="5.13" shape="607.17,554.61 607.30,553.36 606.99,552.23 606.25,551.23 605.07,550.36"/>
    </edge>
    <edge id=":109364_4" function="internal">
        <lane id=":109364_4_0" index="0" speed="8.94" length="5.96" shape="607.17,554.61 609.24,549.01"/>
    </edge>
    <edge id=":109364_5" function="internal">
        <lane id=":109364_5_0" index="0" speed="8.94" length="4.82" shape="607.17,554.61 608.28,553.62 609.19,553.43 609.88,554.03 610.37,555.44"/>
    </edge>
    <edge id=":109365_0" function="internal">
        <lane id=":109365_0_0" index="0" speed="8.94" length="5.12" shape="648.80,481.62 647.43,481.25 646.30,481.43 645.43,482.15 644.80,483.43"/>
    </edge>
    <edge id=":109365_1" function="internal">
        <lane id=":109365_1_0" index="0" speed="8.94" length="11.69" shape="648.80,481.62 645.58,480.21 643.40,479.19 641.26,478.08 638.18,476.39"/>
        <lane id=":109365_1_1" index="1" speed="8.94" length="11.69" shape="650.11,478.59 646.97,477.22 644.85,476.23 642.77,475.14 639.77,473.49"/>
    </edge>
    <edge id=":109365_3" function="internal">
        <lane id=":109365_3_0" index="0" speed="8.94" length="7.08" shape="650.11,478.59 647.54,476.79 646.17,474.11 646.13,473.17"/>
    </edge>
    <edge id=":109365_4" function="internal">
        <lane id=":109365_4_0" index="0" speed="8.94" length="2.41" shape="650.11,478.59 649.30,477.34 649.25,476.42"/>
    </edge>
    <edge id=":109365_18" function="internal">
        <lane id=":109365_18_0" index="0" speed="8.94" length="7.18" shape="646.13,473.17 646.00,470.55 647.03,466.12"/>
    </edge>
    <edge id=":109365_19" function="internal">
        <lane id=":109365_19_0" index="0" speed="8.94" length="2.41" shape="649.25,476.42 649.95,475.83 651.42,475.56"/>
    </edge>
    <edge id=":109365_5" function="internal">
        <lane id=":109365_5_0" index="0" speed="8.94" length="6.68" shape="650.15,467.15 649.84,468.89 650.17,470.36 651.13,471.58 652.72,472.53"/>
    </edge>
    <edge id=":109365_6" function="internal">
        <lane id=":109365_6_0" index="0" speed="8.94" length="17.13" shape="650.15,467.15 648.86,471.03 647.46,475.29 646.07,479.54 644.80,483.43"/>
    </edge>
    <edge id=":109365_7" function="internal">
        <lane id=":109365_7_0" index="0" speed="8.94" length="14.39" shape="650.15,467.15 648.23,471.37 645.86,473.83 643.04,474.54 639.77,473.49"/>
    </edge>
    <edge id=":109365_8" function="internal">
        <lane id=":109365_8_0" index="0" speed="8.94" length="4.80" shape="650.15,467.15 648.98,468.06 648.07,468.19 647.42,467.55 647.03,466.12"/>
    </edge>
    <edge id=":109365_9" function="internal">
        <lane id=":109365_9_0" index="0" speed="8.94" length="5.23" shape="642.95,467.71 644.33,468.23 645.47,468.14 646.37,467.43 647.03,466.12"/>
    </edge>
    <edge id=":109365_10" function="internal">
        <lane id=":109365_10_0" index="0" speed="8.94" length="11.06" shape="642.95,467.71 645.79,469.27 647.75,470.30 649.76,471.24 652.72,472.53"/>
        <lane id=":109365_10_1" index="1" speed="8.94" length="11.06" shape="641.36,470.60 644.28,472.21 646.30,473.26 648.36,474.23 651.42,475.56"/>
    </edge>
    <edge id=":109365_12" function="internal">
        <lane id=":109365_12_0" index="0" speed="8.94" length="7.55" shape="641.36,470.60 643.99,472.74 645.45,475.58 645.52,476.54"/>
    </edge>
    <edge id=":109365_13" function="internal">
        <lane id=":109365_13_0" index="0" speed="8.94" length="2.41" shape="641.36,470.60 642.04,471.92 642.01,472.84"/>
    </edge>
    <edge id=":109365_20" function="internal">
        <lane id=":109365_20_0" index="0" speed="8.94" length="6.99" shape="645.52,476.54 645.72,479.15 644.80,483.43"/>
    </edge>
    <edge id=":109365_21" function="internal">
        <lane id=":109365_21_0" index="0" speed="8.94" length="2.41" shape="642.01,472.84 641.25,473.37 639.77,473.49"/>
    </edge>
    <edge id=":109365_14" function="internal">
        <lane id=":109365_14_0" index="0" speed="8.94" length="7.60" shape="641.66,482.41 641.87,480.72 641.36,479.16 640.13,477.71 638.18,476.39"/>
    </edge>
    <edge id=":109365_15" function="internal">
        <lane id=":109365_15_0" index="0" speed="8.94" length="17.15" shape="641.66,482.41 642.93,478.52 644.33,474.26 645.74,469.99 647.03,466.12"/>
    </edge>
    <edge id=":109365_16" function="internal">
        <lane id=":109365_16_0" index="0" speed="8.94" length="13.74" shape="641.66,482.41 643.45,478.34 645.68,475.85 648.33,474.92 651.42,475.56"/>
    </edge>
    <edge id=":109365_17" function="internal">
        <lane id=":109365_17_0" index="0" speed="8.94" length="4.82" shape="641.66,482.41 642.83,481.48 643.74,481.35 644.40,481.99 644.80,483.43"/>
    </edge>
    <edge id=":109398_0" function="internal">
        <lane id=":109398_0_0" index="0" allow="pedestrian" speed="8.64" length="6.39" shape="773.60,622.54 772.20,622.36 770.98,622.87 769.96,624.08 769.13,625.98"/>
    </edge>
    <edge id=":109398_1" function="internal">
        <lane id=":109398_1_0" index="0" allow="pedestrian" speed="8.64" length="9.72" shape="773.60,622.54 763.99,621.05"/>
    </edge>
    <edge id=":109398_2" function="internal">
        <lane id=":109398_2_0" index="0" speed="8.94" length="8.86" shape="773.60,622.54 771.03,621.33 769.45,619.86 768.84,618.12 769.21,616.13"/>
    </edge>
    <edge id=":109398_3" function="internal">
        <lane id=":109398_3_0" index="0" allow="pedestrian" speed="8.64" length="9.16" shape="772.27,617.37 769.13,625.98"/>
    </edge>
    <edge id=":109398_4" function="internal">
        <lane id=":109398_4_0" index="0" allow="pedestrian" speed="8.64" length="3.82" shape="772.27,617.37 770.90,619.70 770.01,620.38"/>
    </edge>
    <edge id=":109398_5" function="internal">
        <lane id=":109398_5_0" index="0" speed="8.94" length="2.41" shape="772.27,617.37 771.04,618.21 770.12,618.28"/>
    </edge>
    <edge id=":109398_12" function="internal">
        <lane id=":109398_12_0" index="0" speed="8.64" length="6.34" shape="770.01,620.38 769.07,621.09 766.76,621.54 763.99,621.05"/>
    </edge>
    <edge id=":109398_13" function="internal">
        <lane id=":109398_13_0" index="0" speed="8.94" length="2.41" shape="770.12,618.28 769.51,617.59 769.21,616.13"/>
    </edge>
    <edge id=":109398_6" function="internal">
        <lane id=":109398_6_0" index="0" speed="8.64" length="5.13" shape="764.99,617.91 766.42,618.17 767.60,617.96 768.53,617.28 769.21,616.13"/>